sim-outorder: SimpleScalar/Alpha Tool Set version 3.0 of August, 2003.
Copyright (c) 1994-2003 by Todd M. Austin, Ph.D. and SimpleScalar, LLC.
All Rights Reserved. This version of SimpleScalar is licensed for academic
non-commercial use.  No portion of this work may be used by any commercial
entity, or for any commercial purpose, without the prior written permission
of SimpleScalar, LLC (info@simplescalar.com).

warning: section `.comment' ignored...
sim: command line: ../../simplesim-3.0/sim-outorder -redir:sim ../benchmarks/q1.benchout.2014-11-09.20-31-53/anagram/anagram.simout.T6_LIP -redir:prog ../benchmarks/q1.benchout.2014-11-09.20-31-53/anagram/anagram.progout.T6_LIP -cache:dl1 dl1:64:64:8:x -cache:dl2 ul2:4096:64:8:x anagram words 

sim: simulation started @ Mon Nov 10 01:22:42 2014, options follow:

sim-outorder: This simulator implements a very detailed out-of-order issue
superscalar processor with a two-level memory system and speculative
execution support.  This simulator is a performance simulator, tracking the
latency of all pipeline operations.

# -config                     # load configuration from a file
# -dumpconfig                 # dump configuration to a file
# -h                    false # print help message    
# -v                    false # verbose operation     
# -d                    false # enable debug message  
# -i                    false # start in Dlite debugger
-seed                       1 # random number generator seed (0 for timer seed)
# -q                    false # initialize and terminate immediately
# -chkpt               <null> # restore EIO trace execution from <fname>
# -redir:sim     ../benchmarks/q1.benchout.2014-11-09.20-31-53/anagram/anagram.simout.T6_LIP # redirect simulator output to file (non-interactive only)
# -redir:prog    ../benchmarks/q1.benchout.2014-11-09.20-31-53/anagram/anagram.progout.T6_LIP # redirect simulated program output to file
-nice                       0 # simulator scheduling priority
-max:inst                   0 # maximum number of inst's to execute
-bip:cntr                   0 # BIP replacement policy counter limit
-fastfwd                    0 # number of insts skipped before timing starts
# -ptrace              <null> # generate pipetrace, i.e., <fname|stdout|stderr> <range>
-fetch:ifqsize              4 # instruction fetch queue size (in insts)
-fetch:mplat                3 # extra branch mis-prediction latency
-fetch:speed                1 # speed of front-end of machine relative to execution core
-bpred                  bimod # branch predictor type {nottaken|taken|perfect|bimod|2lev|comb}
-bpred:bimod     2048 # bimodal predictor config (<table size>)
-bpred:2lev      1 1024 8 0 # 2-level predictor config (<l1size> <l2size> <hist_size> <xor>)
-bpred:comb      1024 # combining predictor config (<meta_table_size>)
-bpred:ras                  8 # return address stack size (0 for no return stack)
-bpred:btb       512 4 # BTB config (<num_sets> <associativity>)
# -bpred:spec_update       <null> # speculative predictors update in {ID|WB} (default non-spec)
-decode:width               4 # instruction decode B/W (insts/cycle)
-issue:width                4 # instruction issue B/W (insts/cycle)
-issue:inorder          false # run pipeline with in-order issue
-issue:wrongpath         true # issue instructions down wrong execution paths
-commit:width               4 # instruction commit B/W (insts/cycle)
-ruu:size                  16 # register update unit (RUU) size
-lsq:size                   8 # load/store queue (LSQ) size
-cache:dl1       dl1:64:64:8:x # l1 data cache config, i.e., {<config>|none}
-cache:dl1lat               1 # l1 data cache hit latency (in cycles)
-cache:dl2       ul2:4096:64:8:x # l2 data cache config, i.e., {<config>|none}
-cache:dl2lat               6 # l2 data cache hit latency (in cycles)
-cache:il1       il1:512:32:1:l # l1 inst cache config, i.e., {<config>|dl1|dl2|none}
-cache:il1lat               1 # l1 instruction cache hit latency (in cycles)
-cache:il2                dl2 # l2 instruction cache config, i.e., {<config>|dl2|none}
-cache:il2lat               6 # l2 instruction cache hit latency (in cycles)
-cache:flush            false # flush caches on system calls
-cache:icompress        false # convert 64-bit inst addresses to 32-bit inst equivalents
-mem:lat         18 2 # memory access latency (<first_chunk> <inter_chunk>)
-mem:width                  8 # memory access bus width (in bytes)
-tlb:itlb        itlb:16:4096:4:l # instruction TLB config, i.e., {<config>|none}
-tlb:dtlb        dtlb:32:4096:4:l # data TLB config, i.e., {<config>|none}
-tlb:lat                   30 # inst/data TLB miss latency (in cycles)
-res:ialu                   4 # total number of integer ALU's available
-res:imult                  1 # total number of integer multiplier/dividers available
-res:memport                2 # total number of memory system ports available (to CPU)
-res:fpalu                  4 # total number of floating point ALU's available
-res:fpmult                 1 # total number of floating point multiplier/dividers available
# -pcstat              <null> # profile stat(s) against text addr's (mult uses ok)
-bugcompat              false # operate in backward-compatible bugs mode (for testing only)

  Pipetrace range arguments are formatted as follows:

    {{@|#}<start>}:{{@|#|+}<end>}

  Both ends of the range are optional, if neither are specified, the entire
  execution is traced.  Ranges that start with a `@' designate an address
  range to be traced, those that start with an `#' designate a cycle count
  range.  All other range values represent an instruction count range.  The
  second argument, if specified with a `+', indicates a value relative
  to the first argument, e.g., 1000:+100 == 1000:1100.  Program symbols may
  be used in all contexts.

    Examples:   -ptrace FOO.trc #0:#1000
                -ptrace BAR.trc @2000:
                -ptrace BLAH.trc :1500
                -ptrace UXXE.trc :
                -ptrace FOOBAR.trc @main:+278

  Branch predictor configuration examples for 2-level predictor:
    Configurations:   N, M, W, X
      N   # entries in first level (# of shift register(s))
      W   width of shift register(s)
      M   # entries in 2nd level (# of counters, or other FSM)
      X   (yes-1/no-0) xor history and address for 2nd level index
    Sample predictors:
      GAg     : 1, W, 2^W, 0
      GAp     : 1, W, M (M > 2^W), 0
      PAg     : N, W, 2^W, 0
      PAp     : N, W, M (M == 2^(N+W)), 0
      gshare  : 1, W, 2^W, 1
  Predictor `comb' combines a bimodal and a 2-level predictor.



sim: ** starting performance simulation **
warning: partially supported sigprocmask() call...

sim: ** simulation statistics **
sim_num_insn               31513442 # total number of instructions committed
sim_num_refs               10761717 # total number of loads and stores committed
sim_num_loads               7759953 # total number of loads committed
sim_num_stores         3001764.0000 # total number of stores committed
sim_num_branches            4733377 # total number of branches committed
sim_elapsed_time                 14 # total simulation time in seconds
sim_inst_rate          2250960.1429 # simulation speed (in insts/sec)
sim_total_insn             33540793 # total number of instructions executed
sim_total_refs             11389922 # total number of loads and stores executed
sim_total_loads             8169499 # total number of loads executed
sim_total_stores       3220423.0000 # total number of stores executed
sim_total_branches          5063223 # total number of branches executed
sim_cycle                  14495245 # total simulation time in cycles
sim_IPC                      2.1741 # instructions per cycle
sim_CPI                      0.4600 # cycles per instruction
sim_exec_BW                  2.3139 # total instructions (mis-spec + committed) per cycle
sim_IPB                      6.6577 # instruction per branch
IFQ_count                  51128879 # cumulative IFQ occupancy
IFQ_fcount                 11561348 # cumulative IFQ full count
ifq_occupancy                3.5273 # avg IFQ occupancy (insn's)
ifq_rate                     2.3139 # avg IFQ dispatch rate (insn/cycle)
ifq_latency                  1.5244 # avg IFQ occupant latency (cycle's)
ifq_full                     0.7976 # fraction of time (cycle's) IFQ was full
RUU_count                 194992408 # cumulative RUU occupancy
RUU_fcount                  8281894 # cumulative RUU full count
ruu_occupancy               13.4522 # avg RUU occupancy (insn's)
ruu_rate                     2.3139 # avg RUU dispatch rate (insn/cycle)
ruu_latency                  5.8136 # avg RUU occupant latency (cycle's)
ruu_full                     0.5714 # fraction of time (cycle's) RUU was full
LSQ_count                  64978088 # cumulative LSQ occupancy
LSQ_fcount                  1434128 # cumulative LSQ full count
lsq_occupancy                4.4827 # avg LSQ occupancy (insn's)
lsq_rate                     2.3139 # avg LSQ dispatch rate (insn/cycle)
lsq_latency                  1.9373 # avg LSQ occupant latency (cycle's)
lsq_full                     0.0989 # fraction of time (cycle's) LSQ was full
sim_slip                  295991806 # total number of slip cycles
avg_sim_slip                 9.3926 # the average slip between issue and retirement
bpred_bimod.lookups         5214521 # total number of bpred lookups
bpred_bimod.updates         4733377 # total number of updates
bpred_bimod.addr_hits       4519147 # total number of address-predicted hits
bpred_bimod.dir_hits        4519754 # total number of direction-predicted hits (includes addr-hits)
bpred_bimod.misses           213623 # total number of misses
bpred_bimod.jr_hits          393312 # total number of address-predicted hits for JR's
bpred_bimod.jr_seen          393590 # total number of JR's seen
bpred_bimod.jr_non_ras_hits.PP         7597 # total number of address-predicted hits for non-RAS JR's
bpred_bimod.jr_non_ras_seen.PP         7643 # total number of non-RAS JR's seen
bpred_bimod.bpred_addr_rate    0.9547 # branch address-prediction rate (i.e., addr-hits/updates)
bpred_bimod.bpred_dir_rate    0.9549 # branch direction-prediction rate (i.e., all-hits/updates)
bpred_bimod.bpred_jr_rate    0.9993 # JR address-prediction rate (i.e., JR addr-hits/JRs seen)
bpred_bimod.bpred_jr_non_ras_rate.PP    0.9940 # non-RAS JR addr-pred rate (ie, non-RAS JR hits/JRs seen)
bpred_bimod.retstack_pushes       413947 # total number of address pushed onto ret-addr stack
bpred_bimod.retstack_pops       389015 # total number of address popped off of ret-addr stack
bpred_bimod.used_ras.PP       385947 # total number of RAS predictions used
bpred_bimod.ras_hits.PP       385715 # total number of RAS hits
bpred_bimod.ras_rate.PP    0.9994 # RAS prediction rate (i.e., RAS hits/used RAS)
il1.accesses               34318524 # total number of accesses
il1.hits                   34291167 # total number of hits
il1.misses                    27357 # total number of misses
il1.replacements              26883 # total number of replacements
il1.writebacks                    0 # total number of writebacks
il1.invalidations                 0 # total number of invalidations
il1.miss_rate                0.0008 # miss rate (i.e., misses/ref)
il1.repl_rate                0.0008 # replacement rate (i.e., repls/ref)
il1.wb_rate                  0.0000 # writeback rate (i.e., wrbks/ref)
il1.inv_rate                 0.0000 # invalidation rate (i.e., invs/ref)
dl1.accesses               10825355 # total number of accesses
dl1.hits                   10798187 # total number of hits
dl1.misses                    27168 # total number of misses
dl1.replacements              26656 # total number of replacements
dl1.writebacks                 5049 # total number of writebacks
dl1.invalidations                 0 # total number of invalidations
dl1.miss_rate                0.0025 # miss rate (i.e., misses/ref)
dl1.repl_rate                0.0025 # replacement rate (i.e., repls/ref)
dl1.wb_rate                  0.0005 # writeback rate (i.e., wrbks/ref)
dl1.inv_rate                 0.0000 # invalidation rate (i.e., invs/ref)
ul2.accesses                  59574 # total number of accesses
ul2.hits                      54338 # total number of hits
ul2.misses                     5236 # total number of misses
ul2.replacements                321 # total number of replacements
ul2.writebacks                   26 # total number of writebacks
ul2.invalidations                 0 # total number of invalidations
ul2.miss_rate                0.0879 # miss rate (i.e., misses/ref)
ul2.repl_rate                0.0054 # replacement rate (i.e., repls/ref)
ul2.wb_rate                  0.0004 # writeback rate (i.e., wrbks/ref)
ul2.inv_rate                 0.0000 # invalidation rate (i.e., invs/ref)
itlb.accesses              34318524 # total number of accesses
itlb.hits                  34318504 # total number of hits
itlb.misses                      20 # total number of misses
itlb.replacements                 0 # total number of replacements
itlb.writebacks                   0 # total number of writebacks
itlb.invalidations                0 # total number of invalidations
itlb.miss_rate               0.0000 # miss rate (i.e., misses/ref)
itlb.repl_rate               0.0000 # replacement rate (i.e., repls/ref)
itlb.wb_rate                 0.0000 # writeback rate (i.e., wrbks/ref)
itlb.inv_rate                0.0000 # invalidation rate (i.e., invs/ref)
dtlb.accesses              10857465 # total number of accesses
dtlb.hits                  10857382 # total number of hits
dtlb.misses                      83 # total number of misses
dtlb.replacements                 0 # total number of replacements
dtlb.writebacks                   0 # total number of writebacks
dtlb.invalidations                0 # total number of invalidations
dtlb.miss_rate               0.0000 # miss rate (i.e., misses/ref)
dtlb.repl_rate               0.0000 # replacement rate (i.e., repls/ref)
dtlb.wb_rate                 0.0000 # writeback rate (i.e., wrbks/ref)
dtlb.inv_rate                0.0000 # invalidation rate (i.e., invs/ref)
sim_invalid_addrs                 0 # total non-speculative bogus addresses seen (debug var)
ld_text_base           0x0120000000 # program text (code) segment base
ld_text_size                 106496 # program text (code) size in bytes
ld_data_base           0x0140000000 # program initialized data segment base
ld_data_size                  71264 # program init'ed `.data' and uninit'ed `.bss' size in bytes
ld_stack_base          0x011ff9b000 # program stack segment base (highest address in stack)
ld_stack_size                 16384 # program initial stack size
ld_prog_entry          0x01200059c0 # program entry point (initial PC)
ld_environ_base        0x011ff97000 # program environment base address address
ld_target_big_endian              0 # target executable endian-ness, non-zero if big endian
mem.page_count                   54 # total number of pages allocated
mem.page_mem                   432k # total size of memory pages allocated
mem.ptab_misses              516267 # total first level page table misses
mem.ptab_accesses         229171134 # total page table accesses
mem.ptab_miss_rate           0.0023 # first level page table miss rate

