sim-outorder: SimpleScalar/Alpha Tool Set version 3.0 of August, 2003.
Copyright (c) 1994-2003 by Todd M. Austin, Ph.D. and SimpleScalar, LLC.
All Rights Reserved. This version of SimpleScalar is licensed for academic
non-commercial use.  No portion of this work may be used by any commercial
entity, or for any commercial purpose, without the prior written permission
of SimpleScalar, LLC (info@simplescalar.com).

warning: section `.comment' ignored...
sim: command line: ../../simplesim-3.0/sim-outorder -redir:sim ../benchmarks/q1.benchout.2014-11-09.20-31-53/gcc/gcc.simout.T2_LIP -redir:prog ../benchmarks/q1.benchout.2014-11-09.20-31-53/gcc/gcc.progout.T2_LIP -cache:dl1 dl1:64:64:8:x -cache:dl2 ul2:256:64:8:x -max:inst 1000000000 gcc -O 166.i 

sim: simulation started @ Sun Nov  9 23:46:05 2014, options follow:

sim-outorder: This simulator implements a very detailed out-of-order issue
superscalar processor with a two-level memory system and speculative
execution support.  This simulator is a performance simulator, tracking the
latency of all pipeline operations.

# -config                     # load configuration from a file
# -dumpconfig                 # dump configuration to a file
# -h                    false # print help message    
# -v                    false # verbose operation     
# -d                    false # enable debug message  
# -i                    false # start in Dlite debugger
-seed                       1 # random number generator seed (0 for timer seed)
# -q                    false # initialize and terminate immediately
# -chkpt               <null> # restore EIO trace execution from <fname>
# -redir:sim     ../benchmarks/q1.benchout.2014-11-09.20-31-53/gcc/gcc.simout.T2_LIP # redirect simulator output to file (non-interactive only)
# -redir:prog    ../benchmarks/q1.benchout.2014-11-09.20-31-53/gcc/gcc.progout.T2_LIP # redirect simulated program output to file
-nice                       0 # simulator scheduling priority
-max:inst          1000000000 # maximum number of inst's to execute
-bip:cntr                   0 # BIP replacement policy counter limit
-fastfwd                    0 # number of insts skipped before timing starts
# -ptrace              <null> # generate pipetrace, i.e., <fname|stdout|stderr> <range>
-fetch:ifqsize              4 # instruction fetch queue size (in insts)
-fetch:mplat                3 # extra branch mis-prediction latency
-fetch:speed                1 # speed of front-end of machine relative to execution core
-bpred                  bimod # branch predictor type {nottaken|taken|perfect|bimod|2lev|comb}
-bpred:bimod     2048 # bimodal predictor config (<table size>)
-bpred:2lev      1 1024 8 0 # 2-level predictor config (<l1size> <l2size> <hist_size> <xor>)
-bpred:comb      1024 # combining predictor config (<meta_table_size>)
-bpred:ras                  8 # return address stack size (0 for no return stack)
-bpred:btb       512 4 # BTB config (<num_sets> <associativity>)
# -bpred:spec_update       <null> # speculative predictors update in {ID|WB} (default non-spec)
-decode:width               4 # instruction decode B/W (insts/cycle)
-issue:width                4 # instruction issue B/W (insts/cycle)
-issue:inorder          false # run pipeline with in-order issue
-issue:wrongpath         true # issue instructions down wrong execution paths
-commit:width               4 # instruction commit B/W (insts/cycle)
-ruu:size                  16 # register update unit (RUU) size
-lsq:size                   8 # load/store queue (LSQ) size
-cache:dl1       dl1:64:64:8:x # l1 data cache config, i.e., {<config>|none}
-cache:dl1lat               1 # l1 data cache hit latency (in cycles)
-cache:dl2       ul2:256:64:8:x # l2 data cache config, i.e., {<config>|none}
-cache:dl2lat               6 # l2 data cache hit latency (in cycles)
-cache:il1       il1:512:32:1:l # l1 inst cache config, i.e., {<config>|dl1|dl2|none}
-cache:il1lat               1 # l1 instruction cache hit latency (in cycles)
-cache:il2                dl2 # l2 instruction cache config, i.e., {<config>|dl2|none}
-cache:il2lat               6 # l2 instruction cache hit latency (in cycles)
-cache:flush            false # flush caches on system calls
-cache:icompress        false # convert 64-bit inst addresses to 32-bit inst equivalents
-mem:lat         18 2 # memory access latency (<first_chunk> <inter_chunk>)
-mem:width                  8 # memory access bus width (in bytes)
-tlb:itlb        itlb:16:4096:4:l # instruction TLB config, i.e., {<config>|none}
-tlb:dtlb        dtlb:32:4096:4:l # data TLB config, i.e., {<config>|none}
-tlb:lat                   30 # inst/data TLB miss latency (in cycles)
-res:ialu                   4 # total number of integer ALU's available
-res:imult                  1 # total number of integer multiplier/dividers available
-res:memport                2 # total number of memory system ports available (to CPU)
-res:fpalu                  4 # total number of floating point ALU's available
-res:fpmult                 1 # total number of floating point multiplier/dividers available
# -pcstat              <null> # profile stat(s) against text addr's (mult uses ok)
-bugcompat              false # operate in backward-compatible bugs mode (for testing only)

  Pipetrace range arguments are formatted as follows:

    {{@|#}<start>}:{{@|#|+}<end>}

  Both ends of the range are optional, if neither are specified, the entire
  execution is traced.  Ranges that start with a `@' designate an address
  range to be traced, those that start with an `#' designate a cycle count
  range.  All other range values represent an instruction count range.  The
  second argument, if specified with a `+', indicates a value relative
  to the first argument, e.g., 1000:+100 == 1000:1100.  Program symbols may
  be used in all contexts.

    Examples:   -ptrace FOO.trc #0:#1000
                -ptrace BAR.trc @2000:
                -ptrace BLAH.trc :1500
                -ptrace UXXE.trc :
                -ptrace FOOBAR.trc @main:+278

  Branch predictor configuration examples for 2-level predictor:
    Configurations:   N, M, W, X
      N   # entries in first level (# of shift register(s))
      W   width of shift register(s)
      M   # entries in 2nd level (# of counters, or other FSM)
      X   (yes-1/no-0) xor history and address for 2nd level index
    Sample predictors:
      GAg     : 1, W, 2^W, 0
      GAp     : 1, W, M (M > 2^W), 0
      PAg     : N, W, 2^W, 0
      PAp     : N, W, M (M == 2^(N+W)), 0
      gshare  : 1, W, 2^W, 1
  Predictor `comb' combines a bimodal and a 2-level predictor.



sim: ** starting performance simulation **
warning: partially supported sigaction() call...

sim: ** simulation statistics **
sim_num_insn             1000000003 # total number of instructions committed
sim_num_refs              419865997 # total number of loads and stores committed
sim_num_loads             208152941 # total number of loads committed
sim_num_stores         211713056.0000 # total number of stores committed
sim_num_branches          162796370 # total number of branches committed
sim_elapsed_time                596 # total simulation time in seconds
sim_inst_rate          1677852.3540 # simulation speed (in insts/sec)
sim_total_insn           1118985449 # total number of instructions executed
sim_total_refs            464543276 # total number of loads and stores executed
sim_total_loads           245267650 # total number of loads executed
sim_total_stores       219275626.0000 # total number of stores executed
sim_total_branches        182864466 # total number of branches executed
sim_cycle                1094155941 # total simulation time in cycles
sim_IPC                      0.9139 # instructions per cycle
sim_CPI                      1.0942 # cycles per instruction
sim_exec_BW                  1.0227 # total instructions (mis-spec + committed) per cycle
sim_IPB                      6.1426 # instruction per branch
IFQ_count                3303029041 # cumulative IFQ occupancy
IFQ_fcount                777388725 # cumulative IFQ full count
ifq_occupancy                3.0188 # avg IFQ occupancy (insn's)
ifq_rate                     1.0227 # avg IFQ dispatch rate (insn/cycle)
ifq_latency                  2.9518 # avg IFQ occupant latency (cycle's)
ifq_full                     0.7105 # fraction of time (cycle's) IFQ was full
RUU_count               12470969947 # cumulative RUU occupancy
RUU_fcount                527527753 # cumulative RUU full count
ruu_occupancy               11.3978 # avg RUU occupancy (insn's)
ruu_rate                     1.0227 # avg RUU dispatch rate (insn/cycle)
ruu_latency                 11.1449 # avg RUU occupant latency (cycle's)
ruu_full                     0.4821 # fraction of time (cycle's) RUU was full
LSQ_count                4629544166 # cumulative LSQ occupancy
LSQ_fcount                139764258 # cumulative LSQ full count
lsq_occupancy                4.2312 # avg LSQ occupancy (insn's)
lsq_rate                     1.0227 # avg LSQ dispatch rate (insn/cycle)
lsq_latency                  4.1373 # avg LSQ occupant latency (cycle's)
lsq_full                     0.1277 # fraction of time (cycle's) LSQ was full
sim_slip                17446537651 # total number of slip cycles
avg_sim_slip                17.4465 # the average slip between issue and retirement
bpred_bimod.lookups       190023992 # total number of bpred lookups
bpred_bimod.updates       162796369 # total number of updates
bpred_bimod.addr_hits     147476566 # total number of address-predicted hits
bpred_bimod.dir_hits      150334522 # total number of direction-predicted hits (includes addr-hits)
bpred_bimod.misses         12461847 # total number of misses
bpred_bimod.jr_hits        12037522 # total number of address-predicted hits for JR's
bpred_bimod.jr_seen        15113114 # total number of JR's seen
bpred_bimod.jr_non_ras_hits.PP      1415216 # total number of address-predicted hits for non-RAS JR's
bpred_bimod.jr_non_ras_seen.PP      4095208 # total number of non-RAS JR's seen
bpred_bimod.bpred_addr_rate    0.9059 # branch address-prediction rate (i.e., addr-hits/updates)
bpred_bimod.bpred_dir_rate    0.9235 # branch direction-prediction rate (i.e., all-hits/updates)
bpred_bimod.bpred_jr_rate    0.7965 # JR address-prediction rate (i.e., JR addr-hits/JRs seen)
bpred_bimod.bpred_jr_non_ras_rate.PP    0.3456 # non-RAS JR addr-pred rate (ie, non-RAS JR hits/JRs seen)
bpred_bimod.retstack_pushes     13451479 # total number of address pushed onto ret-addr stack
bpred_bimod.retstack_pops     13341811 # total number of address popped off of ret-addr stack
bpred_bimod.used_ras.PP     11017906 # total number of RAS predictions used
bpred_bimod.ras_hits.PP     10622306 # total number of RAS hits
bpred_bimod.ras_rate.PP    0.9641 # RAS prediction rate (i.e., RAS hits/used RAS)
il1.accesses             1185957246 # total number of accesses
il1.hits                 1159742088 # total number of hits
il1.misses                 26215158 # total number of misses
il1.replacements           26214646 # total number of replacements
il1.writebacks                    0 # total number of writebacks
il1.invalidations                 0 # total number of invalidations
il1.miss_rate                0.0221 # miss rate (i.e., misses/ref)
il1.repl_rate                0.0221 # replacement rate (i.e., repls/ref)
il1.wb_rate                  0.0000 # writeback rate (i.e., wrbks/ref)
il1.inv_rate                 0.0000 # invalidation rate (i.e., invs/ref)
dl1.accesses              433578161 # total number of accesses
dl1.hits                  409871722 # total number of hits
dl1.misses                 23706439 # total number of misses
dl1.replacements           23705927 # total number of replacements
dl1.writebacks             16542136 # total number of writebacks
dl1.invalidations                 0 # total number of invalidations
dl1.miss_rate                0.0547 # miss rate (i.e., misses/ref)
dl1.repl_rate                0.0547 # replacement rate (i.e., repls/ref)
dl1.wb_rate                  0.0382 # writeback rate (i.e., wrbks/ref)
dl1.inv_rate                 0.0000 # invalidation rate (i.e., invs/ref)
ul2.accesses               66463733 # total number of accesses
ul2.hits                   32133458 # total number of hits
ul2.misses                 34330275 # total number of misses
ul2.replacements           34328227 # total number of replacements
ul2.writebacks             13830160 # total number of writebacks
ul2.invalidations                 0 # total number of invalidations
ul2.miss_rate                0.5165 # miss rate (i.e., misses/ref)
ul2.repl_rate                0.5165 # replacement rate (i.e., repls/ref)
ul2.wb_rate                  0.2081 # writeback rate (i.e., wrbks/ref)
ul2.inv_rate                 0.0000 # invalidation rate (i.e., invs/ref)
itlb.accesses            1185957246 # total number of accesses
itlb.hits                1185713610 # total number of hits
itlb.misses                  243636 # total number of misses
itlb.replacements            243572 # total number of replacements
itlb.writebacks                   0 # total number of writebacks
itlb.invalidations                0 # total number of invalidations
itlb.miss_rate               0.0002 # miss rate (i.e., misses/ref)
itlb.repl_rate               0.0002 # replacement rate (i.e., repls/ref)
itlb.wb_rate                 0.0000 # writeback rate (i.e., wrbks/ref)
itlb.inv_rate                0.0000 # invalidation rate (i.e., invs/ref)
dtlb.accesses             435879569 # total number of accesses
dtlb.hits                 435647221 # total number of hits
dtlb.misses                  232348 # total number of misses
dtlb.replacements            232220 # total number of replacements
dtlb.writebacks                   0 # total number of writebacks
dtlb.invalidations                0 # total number of invalidations
dtlb.miss_rate               0.0005 # miss rate (i.e., misses/ref)
dtlb.repl_rate               0.0005 # replacement rate (i.e., repls/ref)
dtlb.wb_rate                 0.0000 # writeback rate (i.e., wrbks/ref)
dtlb.inv_rate                0.0000 # invalidation rate (i.e., invs/ref)
sim_invalid_addrs                 0 # total non-speculative bogus addresses seen (debug var)
ld_text_base           0x0120000000 # program text (code) segment base
ld_text_size                1564672 # program text (code) size in bytes
ld_data_base           0x0140000000 # program initialized data segment base
ld_data_size                 277104 # program init'ed `.data' and uninit'ed `.bss' size in bytes
ld_stack_base          0x011ff9b000 # program stack segment base (highest address in stack)
ld_stack_size                 16384 # program initial stack size
ld_prog_entry          0x0120025f70 # program entry point (initial PC)
ld_environ_base        0x011ff97000 # program environment base address address
ld_target_big_endian              0 # target executable endian-ness, non-zero if big endian
mem.page_count                 2099 # total number of pages allocated
mem.page_mem                 16792k # total size of memory pages allocated
mem.ptab_misses             1651060 # total first level page table misses
mem.ptab_accesses        8805891366 # total page table accesses
mem.ptab_miss_rate           0.0002 # first level page table miss rate

